MastesRls/DataRaw/IEEE57.raw
0,   100.00
IEEE Test System, 57 Buses, 7 Generators          / PSS/E-30.0    
Created by College of Electrical Engineering, Zhejiang University, Mon 27 Jun 2011 14:39:13
     1,  ' Bus-1  ',   1.0,    3,    0,       0,    1,    1,    1.040,     0.000,    1
     2,  ' Bus-2  ',   1.0,    2,    0,       0,    1,    1,    1.010,    -1.188,    1
     3,  ' Bus-3  ',   1.0,    2,    0,       0,    1,    1,    0.985,    -5.988,    1
     4,  ' Bus-4  ',   1.0,    1,    0,       0,    1,    1,    0.980,    -7.337,    1
     5,  ' Bus-5  ',   1.0,    1,    0,       0,    1,    1,    0.976,    -8.546,    1
     6,  ' Bus-6  ',   1.0,    2,    0,       0,    1,    1,    0.980,    -8.674,    1
     7,  ' Bus-7  ',   1.0,    1,    0,       0,    1,    1,    0.984,    -7.601,    1
     8,  ' Bus-8  ',   1.0,    2,    0,       0,    1,    1,    1.005,    -4.477,    1
     9,  ' Bus-9  ',   1.0,    2,    0,       0,    1,    1,    0.980,    -9.584,    1
    10,  ' Bus-10 ',   1.0,    1,    0,       0,    1,    1,    0.986,    -11.44,    1
    11,  ' Bus-11 ',   1.0,    1,    0,       0,    1,    1,    0.974,    -10.19,    1
    12,  ' Bus-12 ',   1.0,    2,    0,       0,    1,    1,    1.015,    -10.47,    1
    13,  ' Bus-13 ',   1.0,    1,    0,       0,    1,    1,    0.978,    -9.803,    1
    14,  ' Bus-14 ',   1.0,    1,    0,       0,    1,    1,    0.970,    -9.350,    1
    15,  ' Bus-15 ',   1.0,    1,    0,       0,    1,    1,    0.988,    -7.190,    1
    16,  ' Bus-16 ',   1.0,    1,    0,       0,    1,    1,    1.013,    -8.858,    1
    17,  ' Bus-17 ',   1.0,    1,    0,       0,    1,    1,    1.017,    -5.395,    1
    18,  ' Bus-18 ',   1.0,    1,    0,      10,    1,    1,    1.000,    -11.72,    1
    19,  ' Bus-19 ',   1.0,    1,    0,       0,    1,    1,    0.970,    -13.22,    1
    20,  ' Bus-20 ',   1.0,    1,    0,       0,    1,    1,    0.963,    -13.44,    1
    21,  ' Bus-21 ',   1.0,    1,    0,       0,    1,    1,    1.008,    -12.92,    1
    22,  ' Bus-22 ',   1.0,    1,    0,       0,    1,    1,    1.009,    -12.87,    1
    23,  ' Bus-23 ',   1.0,    1,    0,       0,    1,    1,    1.008,    -12.93,    1
    24,  ' Bus-24 ',   1.0,    1,    0,       0,    1,    1,    0.999,    -13.29,    1
    25,  ' Bus-25 ',   1.0,    1,    0,     5.9,    1,    1,    0.982,    -18.17,    1
    26,  ' Bus-26 ',   1.0,    1,    0,       0,    1,    1,    0.958,    -12.98,    1
    27,  ' Bus-27 ',   1.0,    1,    0,       0,    1,    1,    0.981,    -11.51,    1
    28,  ' Bus-28 ',   1.0,    1,    0,       0,    1,    1,    0.996,    -10.48,    1
    29,  ' Bus-29 ',   1.0,    1,    0,       0,    1,    1,    1.010,    -9.771,    1
    30,  ' Bus-30 ',   1.0,    1,    0,       0,    1,    1,    0.962,    -18.71,    1
    31,  ' Bus-31 ',   1.0,    1,    0,       0,    1,    1,    0.935,    -19.38,    1
    32,  ' Bus-32 ',   1.0,    1,    0,       0,    1,    1,    0.949,    -18.51,    1
    33,  ' Bus-33 ',   1.0,    1,    0,       0,    1,    1,    0.947,    -18.55,    1
    34,  ' Bus-34 ',   1.0,    1,    0,       0,    1,    1,    0.959,    -14.14,    1
    35,  ' Bus-35 ',   1.0,    1,    0,       0,    1,    1,    0.966,    -13.90,    1
    36,  ' Bus-36 ',   1.0,    1,    0,       0,    1,    1,    0.975,    -13.63,    1
    37,  ' Bus-37 ',   1.0,    1,    0,       0,    1,    1,    0.984,    -13.44,    1
    38,  ' Bus-38 ',   1.0,    1,    0,       0,    1,    1,    1.012,    -12.73,    1
    39,  ' Bus-39 ',   1.0,    1,    0,       0,    1,    1,    0.982,    -13.49,    1
    40,  ' Bus-40 ',   1.0,    1,    0,       0,    1,    1,    0.972,    -13.65,    1
    41,  ' Bus-41 ',   1.0,    1,    0,       0,    1,    1,    0.996,    -14.07,    1
    42,  ' Bus-42 ',   1.0,    1,    0,       0,    1,    1,    0.966,    -15.53,    1
    43,  ' Bus-43 ',   1.0,    1,    0,       0,    1,    1,    1.009,    -11.35,    1
    44,  ' Bus-44 ',   1.0,    1,    0,       0,    1,    1,    1.016,    -11.85,    1
    45,  ' Bus-45 ',   1.0,    1,    0,       0,    1,    1,    1.036,     -9.27,    1
    46,  ' Bus-46 ',   1.0,    1,    0,       0,    1,    1,    1.059,    -11.11,    1
    47,  ' Bus-47 ',   1.0,    1,    0,       0,    1,    1,    1.033,    -12.51,    1
    48,  ' Bus-48 ',   1.0,    1,    0,       0,    1,    1,    1.027,    -12.61,    1
    49,  ' Bus-49 ',   1.0,    1,    0,       0,    1,    1,    1.036,    -12.93,    1
    50,  ' Bus-50 ',   1.0,    1,    0,       0,    1,    1,    1.023,    -13.41,    1
    51,  ' Bus-51 ',   1.0,    1,    0,       0,    1,    1,    1.052,    -12.53,    1
    52,  ' Bus-52 ',   1.0,    1,    0,       0,    1,    1,    0.980,    -11.49,    1
    53,  ' Bus-53 ',   1.0,    1,    0,     6.3,    1,    1,    0.970,    -12.25,    1
    54,  ' Bus-54 ',   1.0,    1,    0,       0,    1,    1,    0.996,    -11.70,    1
    55,  ' Bus-55 ',   1.0,    1,    0,       0,    1,    1,    1.030,    -10.80,    1
    56,  ' Bus-56 ',   1.0,    1,    0,       0,    1,    1,    0.968,    -16.06,    1
    57,  ' Bus-57 ',   1.0,    1,    0,       0,    1,    1,    0.964,    -16.58,    1
0 / END OF BUS DATA, BEGIN LOAD DATA
     1,    '1',    1,    1,    1,    55,       17,    0,    0,    0,    0,    1
     2,    '1',    1,    1,    1,   3.0,       88,    0,    0,    0,    0,    1
     3,    '1',    1,    1,    1,    41,       21,    0,    0,    0,    0,    1
     5,    '1',    1,    1,    1,    13,        4,    0,    0,    0,    0,    1
     6,    '1',    1,    1,    1,    75,        2,    0,    0,    0,    0,    1
     8,    '1',    1,    1,    1,   150,       22,    0,    0,    0,    0,    1
     9,    '1',    1,    1,    1,   121,       26,    0,    0,    0,    0,    1
    10,    '1',    1,    1,    1,   5.0,        2,    0,    0,    0,    0,    1
    12,    '1',    1,    1,    1,   377,       24,    0,    0,    0,    0,    1
    13,    '1',    1,    1,    1,    18,      2.3,    0,    0,    0,    0,    1
    14,    '1',    1,    1,    1,  10.5,      5.3,    0,    0,    0,    0,    1
    15,    '1',    1,    1,    1,    22,        5,    0,    0,    0,    0,    1
    16,    '1',    1,    1,    1,    43,        3,    0,    0,    0,    0,    1
    17,    '1',    1,    1,    1,    42,        8,    0,    0,    0,    0,    1
    18,    '1',    1,    1,    1,   27.2,     9.8,    0,    0,    0,    0,    1
    19,    '1',    1,    1,    1,    3.3,     0.6,    0,    0,    0,    0,    1
    20,    '1',    1,    1,    1,    2.3,       1,    0,    0,    0,    0,    1
    23,    '1',    1,    1,    1,    6.3,     2.1,    0,    0,    0,    0,    1
    25,    '1',    1,    1,    1,    6.3,     3.2,    0,    0,    0,    0,    1
    27,    '1',    1,    1,    1,    9.3,     0.5,    0,    0,    0,    0,    1
    28,    '1',    1,    1,    1,    4.6,     2.3,    0,    0,    0,    0,    1
    29,    '1',    1,    1,    1,     17,     2.6,    0,    0,    0,    0,    1
    30,    '1',    1,    1,    1,    3.6,     1.8,    0,    0,    0,    0,    1
    31,    '1',    1,    1,    1,    5.8,     2.9,    0,    0,    0,    0,    1
    32,    '1',    1,    1,    1,    1.6,     0.8,    0,    0,    0,    0,    1
    33,    '1',    1,    1,    1,    3.8,     1.9,    0,    0,    0,    0,    1
    35,    '1',    1,    1,    1,    6.0,       3,    0,    0,    0,    0,    1
    38,    '1',    1,    1,    1,     14,       7,    0,    0,    0,    0,    1
    41,    '1',    1,    1,    1,    6.3,       3,    0,    0,    0,    0,    1
    42,    '1',    1,    1,    1,    7.1,     4.4,    0,    0,    0,    0,    1
    43,    '1',    1,    1,    1,    2.0,       1,    0,    0,    0,    0,    1
    44,    '1',    1,    1,    1,     12,     1.8,    0,    0,    0,    0,    1
    47,    '1',    1,    1,    1,   29.7,    11.6,    0,    0,    0,    0,    1
    49,    '1',    1,    1,    1,     18,     8.5,    0,    0,    0,    0,    1
    50,    '1',    1,    1,    1,     21,    10.5,    0,    0,    0,    0,    1
    51,    '1',    1,    1,    1,     18,     5.3,    0,    0,    0,    0,    1
    52,    '1',    1,    1,    1,    4.9,     2.2,    0,    0,    0,    0,    1
    53,    '1',    1,    1,    1,     20,      10,    0,    0,    0,    0,    1
    54,    '1',    1,    1,    1,    4.1,     1.4,    0,    0,    0,    0,    1
    55,    '1',    1,    1,    1,    6.8,     3.4,    0,    0,    0,    0,    1
    56,    '1',    1,    1,    1,    7.6,     2.2,    0,    0,    0,    0,    1
    57,    '1',    1,    1,    1,    6.7,       2,    0,    0,    0,    0,    1
0 / END OF LOAD DATA, BEGIN GENERATOR DATA
     1,    '1',   478.664,    0.84960,    500,     -400,    1.040, 0,    100, 0,    1, 0,    0, 1,    1,    100,9999,    -9999,    1,    1
     2,    '1',      0.00,   -0.75498,     50,      -17,    1.010, 0,    100, 0,    1, 0,    0, 1,    1,    100,9999,    -9999,    1,    1
     3,    '1',     40.00,    -0.9049,     60,      -10,    0.985, 0,    100, 0,    1, 0,    0, 1,    1,    100,9999,    -9999,    1,    1
     6,    '1',      0.00,     0.8714,     25,       -8,    0.980, 0,    100, 0,    1, 0,    0, 1,    1,    100,9999,    -9999,    1,    1
     8,    '1',     450.0,    62.0996,    200,     -140,    1.005, 0,    100, 0,    1, 0,    0, 1,    1,    100,9999,    -9999,    1,    1
     9,    '1',      0.00,    2.28837,      9,       -3,    0.980, 0,    100, 0,    1, 0,    0, 1,    1,    100,9999,    -9999,    1,    1
    12,    '1',     310.0,    128.631,    155,      -50,    1.015, 0,    100, 0,    1, 0,    0, 1,    1,    100,9999,    -9999,    1,    1
0 / END OF GENERATOR DATA, BEGIN BRANCH DATA
     2,     1,    '1',  0.0083, 0.0280, 0.1290,       0,    0,    0,    0,    0,    0,    0,    1,    0,    1,    1
     3,     2,    '1',  0.0298, 0.0850, 0.0818,       0,    0,    0,    0,    0,    0,    0,    1,    0,    1,    1
     4,     3,    '1',  0.0112, 0.0366, 0.0380,       0,    0,    0,    0,    0,    0,    0,    1,    0,    1,    1
     5,     4,    '1',  0.0625, 0.1320, 0.0258,       0,    0,    0,    0,    0,    0,    0,    1,    0,    1,    1
     6,     4,    '1',  0.0430, 0.1480, 0.0348,       0,    0,    0,    0,    0,    0,    0,    1,    0,    1,    1
     7,     6,    '1',  0.0200, 0.1020, 0.0276,       0,    0,    0,    0,    0,    0,    0,    1,    0,    1,    1
     8,     6,    '1',  0.0339, 0.1730, 0.0470,       0,    0,    0,    0,    0,    0,    0,    1,    0,    1,    1
     9,     8,    '1',  0.0099, 0.0505, 0.0548,       0,    0,    0,    0,    0,    0,    0,    1,    0,    1,    1
    10,     9,    '1',  0.0369, 0.1679, 0.0440,       0,    0,    0,    0,    0,    0,    0,    1,    0,    1,    1
    11,     9,    '1',  0.0258, 0.0848, 0.0218,       0,    0,    0,    0,    0,    0,    0,    1,    0,    1,    1
    12,     9,    '1',  0.0648, 0.2950, 0.0772,       0,    0,    0,    0,    0,    0,    0,    1,    0,    1,    1
    13,     9,    '1',  0.0481, 0.1580, 0.0406,       0,    0,    0,    0,    0,    0,    0,    1,    0,    1,    1
    14,    13,    '1',  0.0132, 0.0434, 0.0110,       0,    0,    0,    0,    0,    0,    0,    1,    0,    1,    1
    15,    13,    '1',  0.0269, 0.0869, 0.0230,       0,    0,    0,    0,    0,    0,    0,    1,    0,    1,    1
    15,     1,    '1',  0.0178, 0.0910, 0.0988,       0,    0,    0,    0,    0,    0,    0,    1,    0,    1,    1
    16,     1,    '1',  0.0454, 0.2060, 0.0546,       0,    0,    0,    0,    0,    0,    0,    1,    0,    1,    1
    17,     1,    '1',  0.0238, 0.1080, 0.0286,       0,    0,    0,    0,    0,    0,    0,    1,    0,    1,    1
    15,     3,    '1',  0.0162, 0.0530, 0.0544,       0,    0,    0,    0,    0,    0,    0,    1,    0,    1,    1
     6,     5,    '1',  0.0302, 0.0641, 0.0124,       0,    0,    0,    0,    0,    0,    0,    1,    0,    1,    1
     8,     7,    '1',  0.0139, 0.0712, 0.0194,       0,    0,    0,    0,    0,    0,    0,    1,    0,    1,    1
    12,    10,    '1',  0.0277, 0.1262, 0.0328,       0,    0,    0,    0,    0,    0,    0,    1,    0,    1,    1
    13,    11,    '1',  0.0223, 0.0732, 0.0188,       0,    0,    0,    0,    0,    0,    0,    1,    0,    1,    1
    13,    12,    '1',  0.0178, 0.0580, 0.0604,       0,    0,    0,    0,    0,    0,    0,    1,    0,    1,    1
    16,    12,    '1',  0.0180, 0.0813, 0.0216,       0,    0,    0,    0,    0,    0,    0,    1,    0,    1,    1
    17,    12,    '1',  0.0397, 0.1790, 0.0476,       0,    0,    0,    0,    0,    0,    0,    1,    0,    1,    1
    15,    14,    '1',  0.0171, 0.0547, 0.0148,       0,    0,    0,    0,    0,    0,    0,    1,    0,    1,    1
    19,    18,    '1',  0.4610, 0.6850, 0.0000,       0,    0,    0,    0,    0,    0,    0,    1,    0,    1,    1
    20,    19,    '1',  0.2830, 0.4340, 0.0000,       0,    0,    0,    0,    0,    0,    0,    1,    0,    1,    1
    22,    21,    '1',  0.0736, 0.1170, 0.0000,       0,    0,    0,    0,    0,    0,    0,    1,    0,    1,    1
    23,    22,    '1',  0.0099, 0.0152, 0.0000,       0,    0,    0,    0,    0,    0,    0,    1,    0,    1,    1
    24,    23,    '1',  0.1660, 0.2560, 0.0084,       0,    0,    0,    0,    0,    0,    0,    1,    0,    1,    1
    27,    26,    '1',  0.1650, 0.2540, 0.0000,       0,    0,    0,    0,    0,    0,    0,    1,    0,    1,    1
    28,    27,    '1',  0.0618, 0.0954, 0.0000,       0,    0,    0,    0,    0,    0,    0,    1,    0,    1,    1
    29,    28,    '1',  0.0418, 0.0587, 0.0000,       0,    0,    0,    0,    0,    0,    0,    1,    0,    1,    1
    30,    25,    '1',  0.1350, 0.2020, 0.0000,       0,    0,    0,    0,    0,    0,    0,    1,    0,    1,    1
    31,    30,    '1',  0.3260, 0.4970, 0.0000,       0,    0,    0,    0,    0,    0,    0,    1,    0,    1,    1
    32,    31,    '1',  0.5070, 0.7550, 0.0000,       0,    0,    0,    0,    0,    0,    0,    1,    0,    1,    1
    33,    32,    '1',  0.0392, 0.0360, 0.0000,       0,    0,    0,    0,    0,    0,    0,    1,    0,    1,    1
    35,    34,    '1',  0.0520, 0.0780, 0.0032,       0,    0,    0,    0,    0,    0,    0,    1,    0,    1,    1
    36,    35,    '1',  0.0430, 0.0537, 0.0016,       0,    0,    0,    0,    0,    0,    0,    1,    0,    1,    1
    37,    36,    '1',  0.0290, 0.0366, 0.0000,       0,    0,    0,    0,    0,    0,    0,    1,    0,    1,    1
    38,    37,    '1',  0.0651, 0.1009, 0.0020,       0,    0,    0,    0,    0,    0,    0,    1,    0,    1,    1
    39,    37,    '1',  0.0239, 0.0379, 0.0000,       0,    0,    0,    0,    0,    0,    0,    1,    0,    1,    1
    40,    36,    '1',  0.0300, 0.0466, 0.0000,       0,    0,    0,    0,    0,    0,    0,    1,    0,    1,    1
    38,    22,    '1',  0.0192, 0.0295, 0.0000,       0,    0,    0,    0,    0,    0,    0,    1,    0,    1,    1
    42,    41,    '1',  0.2070, 0.3520, 0.0000,       0,    0,    0,    0,    0,    0,    0,    1,    0,    1,    1
    43,    41,    '1',  0.0000, 0.4120, 0.0000,       0,    0,    0,    0,    0,    0,    0,    1,    0,    1,    1
    44,    38,    '1',  0.0289, 0.0585, 0.0020,       0,    0,    0,    0,    0,    0,    0,    1,    0,    1,    1
    47,    46,    '1',  0.0230, 0.0680, 0.0032,       0,    0,    0,    0,    0,    0,    0,    1,    0,    1,    1
    48,    47,    '1',  0.0182, 0.0233, 0.0000,       0,    0,    0,    0,    0,    0,    0,    1,    0,    1,    1
    49,    48,    '1',  0.0834, 0.1290, 0.0048,       0,    0,    0,    0,    0,    0,    0,    1,    0,    1,    1
    50,    49,    '1',  0.0801, 0.1280, 0.0000,       0,    0,    0,    0,    0,    0,    0,    1,    0,    1,    1
    51,    50,    '1',  0.1386, 0.2200, 0.0000,       0,    0,    0,    0,    0,    0,    0,    1,    0,    1,    1
    52,    29,    '1',  0.1442, 0.1870, 0.0000,       0,    0,    0,    0,    0,    0,    0,    1,    0,    1,    1
    53,    52,    '1',  0.0762, 0.0984, 0.0000,       0,    0,    0,    0,    0,    0,    0,    1,    0,    1,    1
    54,    53,    '1',  0.1878, 0.2320, 0.0000,       0,    0,    0,    0,    0,    0,    0,    1,    0,    1,    1
    55,    54,    '1',  0.1732, 0.2265, 0.0000,       0,    0,    0,    0,    0,    0,    0,    1,    0,    1,    1
    45,    44,    '1',  0.0624, 0.1242, 0.0040,       0,    0,    0,    0,    0,    0,    0,    1,    0,    1,    1
    41,    56,    '1',  0.5530, 0.5490, 0.0000,       0,    0,    0,    0,    0,    0,    0,    1,    0,    1,    1
    42,    56,    '1',  0.2125, 0.3540, 0.0000,       0,    0,    0,    0,    0,    0,    0,    1,    0,    1,    1
    56,    57,    '1',  0.1740, 0.2600, 0.0000,       0,    0,    0,    0,    0,    0,    0,    1,    0,    1,    1
    49,    38,    '1',  0.1150, 0.1770, 0.0030,       0,    0,    0,    0,    0,    0,    0,    1,    0,    1,    1
    48,    38,    '1',  0.0312, 0.0482, 0.0000,       0,    0,    0,    0,    0,    0,    0,    1,    0,    1,    1
0 / END OF BRANCH DATA, BEGIN TRANSFORMER DATA    
4,    18,    0,'1',1,1,1,    0,    0,    2,    '        ',1,    1,    1
    0,    0.555,    100
    0.970,    0,    0,    0,    0,    0,    0,    0,    1.1,    0.9,    1.1,    0.9,    33,    0,    0,    0
    1,    0
4,    18,    0,'1',1,1,1,    0,    0,    2,    '        ',1,    1,    1
    0,    0.43,    100
    0.978,    0,    0,    0,    0,    0,    0,    0,    1.1,    0.9,    1.1,    0.9,    33,    0,    0,    0
    1,    0
21,    20,    0,'1',1,1,1,    0,    0,    2,    '        ',1,    1,    1
    0,    0.7767,    100
    1.043,    0,    0,    0,    0,    0,    0,    0,    1.1,    0.9,    1.1,    0.9,    33,    0,    0,    0
    1,    0
24,    25,    0,'1',1,1,1,    0,    0,    2,    '        ',1,    1,    1
    0,    1.182,    100
    1.000,    0,    0,    0,    0,    0,    0,    0,    1.1,    0.9,    1.1,    0.9,    33,    0,    0,    0
    1,    0
24,    25,    0,'1',1,1,1,    0,    0,    2,    '        ',1,    1,    1
    0,    1.23,    100
    1.000,    0,    0,    0,    0,    0,    0,    0,    1.1,    0.9,    1.1,    0.9,    33,    0,    0,    0
    1,    0
24,    26,    0,'1',1,1,1,    0,    0,    2,    '        ',1,    1,    1
    0,    0.0473,    100
    1.043,    0,    0,    0,    0,    0,    0,    0,    1.1,    0.9,    1.1,    0.9,    33,    0,    0,    0
    1,    0
7,    29,    0,'1',1,1,1,    0,    0,    2,    '        ',1,    1,    1
    0,    0.0648,    100
    0.967,    0,    0,    0,    0,    0,    0,    0,    1.1,    0.9,    1.1,    0.9,    33,    0,    0,    0
    1,    0
34,    32,    0,'1',1,1,1,    0,    0,    2,    '        ',1,    1,    1
    0,    0.953,    100
    0.975,    0,    0,    0,    0,    0,    0,    0,    1.1,    0.9,    1.1,    0.9,    33,    0,    0,    0
    1,    0
11,    41,    0,'1',1,1,1,    0,    0,    2,    '        ',1,    1,    1
    0,    0.749,    100
    0.955,    0,    0,    0,    0,    0,    0,    0,    1.1,    0.9,    1.1,    0.9,    33,    0,    0,    0
    1,    0
15,    45,    0,'1',1,1,1,    0,    0,    2,    '        ',1,    1,    1
    0,    0.1042,    100
    0.955,    0,    0,    0,    0,    0,    0,    0,    1.1,    0.9,    1.1,    0.9,    33,    0,    0,    0
    1,    0
14,    46,    0,'1',1,1,1,    0,    0,    2,    '        ',1,    1,    1
    0,    0.0735,    100
    0.900,    0,    0,    0,    0,    0,    0,    0,    1.1,    0.9,    1.1,    0.9,    33,    0,    0,    0
    1,    0
10,    51,    0,'1',1,1,1,    0,    0,    2,    '        ',1,    1,    1
    0,    0.0712,    100
    0.930,    0,    0,    0,    0,    0,    0,    0,    1.1,    0.9,    1.1,    0.9,    33,    0,    0,    0
    1,    0
13,    49,    0,'1',1,1,1,    0,    0,    2,    '        ',1,    1,    1
    0,    0.191,    100
    0.895,    0,    0,    0,    0,    0,    0,    0,    1.1,    0.9,    1.1,    0.9,    33,    0,    0,    0
    1,    0
11,    43,    0,'1',1,1,1,    0,    0,    2,    '        ',1,    1,    1
    0,    0.153,    100
    0.958,    0,    0,    0,    0,    0,    0,    0,    1.1,    0.9,    1.1,    0.9,    33,    0,    0,    0
    1,    0
40,    56,    0,'1',1,1,1,    0,    0,    2,    '        ',1,    1,    1
    0,    1.195,    100
    0.958,    0,    0,    0,    0,    0,    0,    0,    1.1,    0.9,    1.1,    0.9,    33,    0,    0,    0
    1,    0
39,    57,    0,'1',1,1,1,    0,    0,    2,    '        ',1,    1,    1
    0,    1.355,    100
    0.980,    0,    0,    0,    0,    0,    0,    0,    1.1,    0.9,    1.1,    0.9,    33,    0,    0,    0
    1,    0
9,    55,    0,'1',1,1,1,    0,    0,    2,    '        ',1,    1,    1
    0,    0.1205,    100
    0.940,    0,    0,    0,    0,    0,    0,    0,    1.1,    0.9,    1.1,    0.9,    33,    0,    0,    0
    1,    0
0 / END OF TRANSFORMER DATA, BEGIN AREA DATA
0 / END OF TRANSFORMER DATA, BEGIN AREA DATA
0 / END OF AREA DATA, BEGIN TWO-TERMINAL DC DATA
0 / END OF TWO-TERMINAL DC DATA, BEGIN VSC DC LINE DATA
0 / END OF VSC DC LINE DATA, BEGIN SWITCHED SHUNT DATA
0 / END OF SWITCHED SHUNT DATA, BEGIN IMPEDANCE CORRECTION DATA
0 / END OF IMPEDANCE CORRECTION DATA, BEGIN MULTI-TERMINAL DC DATA
0 / END OF MULTI-TERMINAL DC DATA, BEGIN MULTI-SECTION LINE DATA
0 / END OF MULTI-SECTION LINE DATA, BEGIN ZONE DATA
0 / END OF ZONE DATA, BEGIN INTER-AREA TRANSFER DATA
0 / END OF INTER-AREA TRANSFER DATA, BEGIN OWNER DATA
0 / END OF OWNER DATA, BEGIN FACTS DEVICE DATA
0 / END OF FACTS DEVICE DATA
